<?xml version="1.0" encoding="UTF-8"?>

<!-- generated on 2023-12-31 15:55:04 by Eclipse SUMO netedit Version 1.18.0
<configuration xmlns:xsi="http://www.w3.org/2001/XMLSchema-instance" xsi:noNamespaceSchemaLocation="http://sumo.dlr.de/xsd/neteditConfiguration.xsd">

    <input>
        <sumocfg-file value="C:\Users\aders\Desktop\sumo\1.sumocfg"/>
        <route-files value="C:\Users\aders\Desktop\sumo\1.rou.xml"/>
        <sumo-net-file value="C:\Users\aders\Desktop\sumo\1.net.xml"/>
    </input>

    <output>
        <output-file value="C:\Users\aders\Desktop\sumo\1.net.xml"/>
    </output>

    <processing>
        <geometry.min-radius.fix.railways value="false"/>
        <geometry.max-grade.fix value="false"/>
        <offset.disable-normalization value="true"/>
        <lefthand value="0"/>
    </processing>

    <junctions>
        <no-turnarounds value="true"/>
        <junctions.corner-detail value="5"/>
        <junctions.limit-turn-speed value="5.50"/>
        <rectangular-lane-cut value="0"/>
    </junctions>

    <pedestrian>
        <walkingareas value="0"/>
    </pedestrian>

</configuration>
-->

<net version="1.16" junctionCornerDetail="5" limitTurnSpeed="5.50" xmlns:xsi="http://www.w3.org/2001/XMLSchema-instance" xsi:noNamespaceSchemaLocation="http://sumo.dlr.de/xsd/net_file.xsd">

    <location netOffset="0.00,0.00" convBoundary="-66.61,12.43,126.36,74.28" origBoundary="-10000000000.00,-10000000000.00,10000000000.00,10000000000.00" projParameter="!"/>

    <edge id=":J10_0" function="internal">
        <lane id=":J10_0_0" index="0" speed="9.40" length="6.97" shape="8.51,63.01 10.02,64.45 11.13,65.47 12.39,66.08 14.36,66.28"/>
    </edge>
    <edge id=":J10_1" function="internal">
        <lane id=":J10_1_0" index="0" speed="14.00" length="7.87" shape="6.49,66.28 14.36,66.28"/>
        <lane id=":J10_1_1" index="1" speed="14.00" length="7.87" shape="6.49,69.48 14.36,69.48"/>
        <lane id=":J10_1_2" index="2" speed="14.00" length="7.87" shape="6.49,72.68 14.36,72.68"/>
    </edge>
    <edge id=":J2_0" function="internal">
        <lane id=":J2_0_0" index="0" speed="13.89" length="0.50" shape="8.73,63.20 8.36,62.88"/>
    </edge>

    <edge id="E3" from="J12" to="J2" priority="-1">
        <lane id="E3_0" index="0" speed="13.89" length="79.89" shape="-51.93,11.22 8.73,63.20"/>
    </edge>
    <edge id="E4" from="J2" to="J10" priority="-1">
        <lane id="E4_0" index="0" speed="13.89" length="0.20" shape="8.36,62.88 8.51,63.01"/>
    </edge>
    <edge id="E5" from="J9" to="J10" priority="-1" length="74.00">
        <lane id="E5_0" index="0" speed="14.00" length="74.00" shape="-66.61,66.28 6.49,66.28"/>
        <lane id="E5_1" index="1" speed="14.00" length="74.00" shape="-66.61,69.48 6.49,69.48"/>
        <lane id="E5_2" index="2" speed="14.00" length="74.00" shape="-66.61,72.68 6.49,72.68"/>
    </edge>
    <edge id="E6" from="J10" to="J11" priority="-1" length="126.00">
        <lane id="E6_0" index="0" speed="14.00" length="126.00" shape="14.36,66.28 126.36,66.28"/>
        <lane id="E6_1" index="1" speed="14.00" length="126.00" shape="14.36,69.48 126.36,69.48"/>
        <lane id="E6_2" index="2" speed="14.00" length="126.00" shape="14.36,72.68 126.36,72.68"/>
    </edge>

    <tlLogic id="J8" type="actuated" programID="0" offset="0">
        <phase duration="20" state="r"/>
        <phase duration="15" state="y"/>
        <phase duration="82" state="G" minDur="5" maxDur="50"/>
    </tlLogic>

    <junction id="J10" type="priority" x="18.98" y="74.28" incLanes="E4_0 E5_0 E5_1 E5_2" intLanes=":J10_0_0 :J10_1_0 :J10_1_1 :J10_1_2" shape="14.36,74.28 14.36,64.68 8.97,61.28 6.86,63.69 6.49,64.68 6.49,74.28">
        <request index="0" response="1110" foes="1110" cont="0"/>
        <request index="1" response="0000" foes="0001" cont="0"/>
        <request index="2" response="0000" foes="0001" cont="0"/>
        <request index="3" response="0000" foes="0001" cont="0"/>
    </junction>
    <junction id="J11" type="dead_end" x="126.36" y="74.28" incLanes="E6_0 E6_1 E6_2" intLanes="" shape="126.36,64.68 126.36,74.28"/>
    <junction id="J12" type="dead_end" x="-52.97" y="12.43" incLanes="" intLanes="" shape="-52.97,12.43 -50.89,10.00"/>
    <junction id="J2" type="traffic_light" x="7.80" y="64.51" incLanes="E3_0" intLanes=":J2_0_0" shape="7.91,64.60 10.01,62.19 9.78,61.99 7.69,64.42">
        <request index="0" response="0" foes="0" cont="0"/>
    </junction>
    <junction id="J9" type="dead_end" x="-66.61" y="74.28" incLanes="" intLanes="" shape="-66.61,74.28 -66.61,64.68"/>

    <connection from="E3" to="E4" fromLane="0" toLane="0" via=":J2_0_0" tl="J8" linkIndex="0" dir="s" state="O"/>
    <connection from="E4" to="E6" fromLane="0" toLane="0" via=":J10_0_0" dir="s" state="m"/>
    <connection from="E5" to="E6" fromLane="0" toLane="0" via=":J10_1_0" dir="s" state="M"/>
    <connection from="E5" to="E6" fromLane="1" toLane="1" via=":J10_1_1" dir="s" state="M"/>
    <connection from="E5" to="E6" fromLane="2" toLane="2" via=":J10_1_2" dir="s" state="M"/>

    <connection from=":J10_0" to="E6" fromLane="0" toLane="0" dir="s" state="M"/>
    <connection from=":J10_1" to="E6" fromLane="0" toLane="0" dir="s" state="M"/>
    <connection from=":J10_1" to="E6" fromLane="1" toLane="1" dir="s" state="M"/>
    <connection from=":J10_1" to="E6" fromLane="2" toLane="2" dir="s" state="M"/>
    <connection from=":J2_0" to="E4" fromLane="0" toLane="0" dir="s" state="M"/>

</net>
