<?xml version="1.0" encoding="UTF-8"?>

<!-- generated on 2023-12-30 11:10:52 by Eclipse SUMO netedit Version 1.18.0
<configuration xmlns:xsi="http://www.w3.org/2001/XMLSchema-instance" xsi:noNamespaceSchemaLocation="http://sumo.dlr.de/xsd/neteditConfiguration.xsd">

    <input>
        <sumocfg-file value="C:\Users\aders\Desktop\sumo\1.sumocfg"/>
        <route-files value="C:\Users\aders\Desktop\sumo\1.rou.xml"/>
        <sumo-net-file value="C:\Users\aders\Desktop\sumo\1.net.xml"/>
    </input>

    <output>
        <tls-file value="C:\Users\aders\Desktop\sumo\1.tll.xml"/>
    </output>

    <processing>
        <geometry.min-radius.fix.railways value="false"/>
        <geometry.max-grade.fix value="false"/>
        <offset.disable-normalization value="true"/>
        <lefthand value="0"/>
    </processing>

    <junctions>
        <no-turnarounds value="true"/>
        <junctions.corner-detail value="5"/>
        <junctions.limit-turn-speed value="5.50"/>
        <rectangular-lane-cut value="0"/>
    </junctions>

    <pedestrian>
        <walkingareas value="0"/>
    </pedestrian>

</configuration>
-->

<nodes version="1.16" xmlns:xsi="http://www.w3.org/2001/XMLSchema-instance" xsi:noNamespaceSchemaLocation="http://sumo.dlr.de/xsd/nodes_file.xsd">
    <location netOffset="0.00,0.00" convBoundary="-66.61,12.43,126.36,74.28" origBoundary="-10000000000.00,-10000000000.00,10000000000.00,10000000000.00" projParameter="!"/>

    <node id="J10" x="18.98" y="74.28" type="traffic_light" tl="J10" tlType="actuated"/>
    <node id="J11" x="126.36" y="74.28" type="dead_end"/>
    <node id="J12" x="-52.97" y="12.43" type="dead_end"/>
    <node id="J9" x="-66.61" y="74.28" type="dead_end"/>
</nodes>
