<?xml version="1.0" encoding="UTF-8"?>

<!-- generated on 2023-12-30 11:10:52 by Eclipse SUMO netedit Version 1.18.0
<configuration xmlns:xsi="http://www.w3.org/2001/XMLSchema-instance" xsi:noNamespaceSchemaLocation="http://sumo.dlr.de/xsd/neteditConfiguration.xsd">

    <input>
        <sumocfg-file value="C:\Users\aders\Desktop\sumo\1.sumocfg"/>
        <route-files value="C:\Users\aders\Desktop\sumo\1.rou.xml"/>
        <sumo-net-file value="C:\Users\aders\Desktop\sumo\1.net.xml"/>
    </input>

    <output>
        <tls-file value="C:\Users\aders\Desktop\sumo\1.tll.xml"/>
    </output>

    <processing>
        <geometry.min-radius.fix.railways value="false"/>
        <geometry.max-grade.fix value="false"/>
        <offset.disable-normalization value="true"/>
        <lefthand value="0"/>
    </processing>

    <junctions>
        <no-turnarounds value="true"/>
        <junctions.corner-detail value="5"/>
        <junctions.limit-turn-speed value="5.50"/>
        <rectangular-lane-cut value="0"/>
    </junctions>

    <pedestrian>
        <walkingareas value="0"/>
    </pedestrian>

</configuration>
-->

<tlLogics version="1.16" xmlns:xsi="http://www.w3.org/2001/XMLSchema-instance" xsi:noNamespaceSchemaLocation="http://sumo.dlr.de/xsd/tllogic_file.xsd">
    <tlLogic id="J10" type="actuated" programID="0" offset="0">
        <phase duration="42" state="Grrr" minDur="5" maxDur="50"/>
        <phase duration="3"  state="yrrr"/>
        <phase duration="42" state="rGGG" minDur="5" maxDur="50"/>
        <phase duration="3"  state="ryyy"/>
    </tlLogic>

    <connection from="E5" to="E6" fromLane="0" toLane="0" tl="J10" linkIndex="1"/>
    <connection from="E5" to="E6" fromLane="1" toLane="1" tl="J10" linkIndex="2"/>
    <connection from="E5" to="E6" fromLane="2" toLane="2" tl="J10" linkIndex="3"/>
    <connection from="E7" to="E6" fromLane="0" toLane="0" tl="J10" linkIndex="0"/>
</tlLogics>
