<?xml version="1.0" encoding="UTF-8"?>

<!-- generated on 2023-12-30 11:10:52 by Eclipse SUMO netedit Version 1.18.0
<configuration xmlns:xsi="http://www.w3.org/2001/XMLSchema-instance" xsi:noNamespaceSchemaLocation="http://sumo.dlr.de/xsd/neteditConfiguration.xsd">

    <input>
        <sumocfg-file value="C:\Users\aders\Desktop\sumo\1.sumocfg"/>
        <route-files value="C:\Users\aders\Desktop\sumo\1.rou.xml"/>
        <sumo-net-file value="C:\Users\aders\Desktop\sumo\1.net.xml"/>
    </input>

    <output>
        <tls-file value="C:\Users\aders\Desktop\sumo\1.tll.xml"/>
    </output>

    <processing>
        <geometry.min-radius.fix.railways value="false"/>
        <geometry.max-grade.fix value="false"/>
        <offset.disable-normalization value="true"/>
        <lefthand value="0"/>
    </processing>

    <junctions>
        <no-turnarounds value="true"/>
        <junctions.corner-detail value="5"/>
        <junctions.limit-turn-speed value="5.50"/>
        <rectangular-lane-cut value="0"/>
    </junctions>

    <pedestrian>
        <walkingareas value="0"/>
    </pedestrian>

</configuration>
-->

<edges version="1.16" xmlns:xsi="http://www.w3.org/2001/XMLSchema-instance" xsi:noNamespaceSchemaLocation="http://sumo.dlr.de/xsd/edges_file.xsd">
    <edge id="E5" from="J9" to="J10" priority="-1" numLanes="3" speed="14.00" length="74.00"/>
    <edge id="E6" from="J10" to="J11" priority="-1" numLanes="3" speed="14.00" length="126.00"/>
    <edge id="E7" from="J12" to="J10" priority="-1" numLanes="1" speed="8.00" length="80.00"/>
</edges>
